"http://7oceancleaning.com/2022/06/17/dubai-sex-females-lesbian-shemale-and-you-will-6/", 0, 0, 0, 0, 0, 1, 0, 0, 0, 0, 0, 0, 0, 0, 0, 0, 0, 0, 0, 0, 0, 0, 0, 0, 0, 0, 0, 0, 0, 0, 0, 0, 0, 0, 0, 0, 0, 0, 0, 0, 0, 0, 0, 0, 0, 0, 0, 0, 0, 0, 0, 0, 0, 0, 0, 0, 0, 0	
"https://login.microsoftonline.com/te/dnvglb2cprod.onmicrosoft.com/b2c_1a_signinwithadfsidp/oauth2/v2.0/authorize?client_id=8ec43e6f-55d9-4c87-ab6e-11862fa37691&redirect_uri=https%3A%2F%2Ffastfeasibility.dnvgl.com%2Fsignin-oidc&response_type=id_token&scope=openid%20profile&response_mode=form_post&nonce=637917081629465511.NzUyODk2ZDgtZjdiOC00NjNkLTlkMzUtZWUzNWM0OTA2Y2U0MjM5NDU0OGItNjdlOS00MDFlLTg1OWItZjM4NjY3MjdhODhl&state=CfDJ8AXsS4DeFFVEmjbBy8BM1e0xeoU_9bwHDMKTG_lDeVaZZN58ADZ2re9juP7S3G6q96ooTjc_sUVp_Es-LnrqIAuviH1Y4-H8etQFUdsvwwNnytkXP6TjlBhYn4rRnATex56iWQW8LCa0sJLrwecAPg3oQEYtco2IrXg7CtIXtgOeSGF5f7BMpUFdsNF97fRm87-7NytiTzBFu8AaKzQDmcXxZ1H-exyf4dNW64y_zAhetStDNoxLQRGHmBGtD43XR5R7eb2CPzqCB43hPP1SYuqTIzE9ro8TmMG5hR5mQ-YJTnRAA60oMAKyNtYdtaw3ydUK2_15w8k2xh-kcmR3LhNmTLPx65eSnTpyM7w4rREV&x-client-SKU=ID_NETSTANDARD2_0&x-client-ver=5.3.0.0", 0, 0, 0, 0, 0, 0, 0, 0, 0, 0, 0, 0, 0, 0, 0, 0, 0, 0, 0, 0, 0, 0, 0, 0, 0, 0, 0, 0, 0, 0, 0, 0, 0, 0, 0, 0, 0, 0, 0, 0, 0, 0, 0, 0, 0, 0, 0, 0, 0, 0, 0, 0, 1, 0, 0, 0, 0, 0	
"https://www.snapeandsons.co.uk/collections/home-laundry-drying", 0, 0, 0, 0, 0, 0, 0, 0, 0, 0, 0, 0, 0, 0, 0, 0, 0, 0, 0, 0, 0, 0, 0, 0, 0, 0, 0, 0, 0, 0, 0, 0, 0, 0, 0, 0, 0, 0, 0, 0, 0, 0, 0, 0, 0, 0, 0, 0, 0, 0, 0, 0, 0, 0, 0, 0, 0, 0	
"http://7oceancleaning.com/2021/10/12/internet-dating-usernames-instances-steps-to-make-your-profile-stand-out-from-the-crowd/", 0, 0, 0, 0, 0, 0, 0, 0, 0, 0, 0, 0, 0, 0, 0, 0, 0, 0, 0, 0, 0, 0, 0, 0, 0, 0, 0, 0, 0, 0, 0, 0, 0, 0, 0, 0, 0, 0, 0, 0, 0, 0, 0, 0, 0, 0, 0, 0, 0, 0, 0, 0, 0, 0, 0, 0, 0, 0	
"https://www.glassdoor.com.br/Avalia%C3%A7%C3%B5es/Softplan-Avalia%C3%A7%C3%B5es-E656864.htm", 0, 0, 0, 0, 0, 1, 0, 0, 0, 0, 0, 0, 0, 0, 0, 0, 0, 0, 0, 0, 0, 0, 0, 0, 0, 0, 0, 0, 0, 0, 0, 0, 0, 0, 0, 0, 0, 0, 0, 0, 0, 0, 0, 0, 0, 0, 0, 0, 0, 0, 0, 0, 0, 0, 0, 0, 0, 0	
"http://wiki.seas.harvard.edu/geos-chem/index.php?title=GEOS-Chem_v11-01_benchmark_history&action=edit&oldid=47378", 0, 0, 0, 0, 0, 1, 0, 0, 0, 0, 0, 0, 0, 0, 0, 0, 0, 0, 0, 0, 0, 0, 0, 0, 0, 0, 0, 0, 0, 0, 0, 0, 0, 0, 0, 0, 0, 0, 0, 0, 0, 0, 0, 0, 0, 0, 0, 0, 0, 0, 0, 0, 0, 0, 0, 0, 0, 0	
"https://bestrsscenter.com/category/house-of-representatives/", 1, 0, 0, 0, 0, 0, 0, 0, 0, 0, 0, 0, 1, 0, 0, 0, 0, 0, 0, 0, 0, 0, 0, 0, 0, 0, 0, 0, 0, 0, 0, 0, 0, 0, 0, 0, 0, 0, 0, 0, 0, 0, 0, 0, 0, 0, 0, 3, 0, 0, 0, 0, 0, 0, 0, 0, 0, 0	
"https://www.naturecity.com/blogs/p/omega-3-essential-fatty-acids-important-smokers", 0, 0, 0, 0, 0, 0, 0, 0, 0, 0, 0, 0, 0, 0, 0, 0, 0, 0, 0, 0, 0, 0, 0, 0, 0, 0, 0, 0, 0, 0, 0, 0, 0, 0, 0, 0, 0, 0, 0, 0, 0, 0, 0, 0, 0, 0, 0, 0, 0, 0, 0, 0, 0, 0, 0, 0, 0, 0	
"http://www.trendynail.net/2011/04/clinique-moisture-surge-tinted.html", 0, 0, 0, 0, 0, 0, 0, 0, 0, 0, 0, 0, 0, 0, 0, 0, 0, 0, 0, 0, 0, 0, 0, 0, 0, 0, 0, 0, 0, 0, 0, 0, 0, 0, 0, 0, 0, 0, 0, 0, 0, 0, 1, 0, 0, 0, 0, 0, 0, 0, 0, 0, 0, 0, 0, 0, 0, 0	
"https://eberlestock.com/en-ca/collections/hydration-accessories/products/100-oz-3-liter-hydration-system", 0, 0, 0, 0, 0, 0, 0, 0, 0, 0, 0, 0, 0, 0, 0, 0, 0, 0, 0, 0, 0, 0, 0, 0, 0, 0, 0, 0, 0, 0, 0, 0, 0, 0, 0, 0, 0, 0, 0, 0, 0, 0, 0, 0, 0, 0, 0, 0, 0, 0, 0, 0, 0, 0, 0, 0, 0, 0	
